
OS:Version,
  {1dc09aaf-84c7-4855-9b76-af55dd30d4b9}, ! Handle
  0.9.0;                                  ! Version Identifier

OS:YearDescription,
  {d7d89ca4-8823-4a40-a666-4576b511925e}, ! Handle
  ,                                       ! Calendar Year
  UseWeatherFile;                         ! Day of Week for Start Day

OS:Building,
  {8f29a149-a572-4563-9b36-001b90e0bca6}, ! Handle
  Building 1,                             ! Name
  ,                                       ! Building Type
  ,                                       ! North Axis {deg}
  ,                                       ! Nominal Floor to Floor Height {m}
  ,                                       ! Space Type Name
  ,                                       ! Default Construction Set Name
  ;                                       ! Default Schedule Set Name

