!-Generator IDFEditor 1.34
!-Option OriginalOrderTop UseSpecialFormat
!-NOTE: All comments with '!-' are ignored by the IDFEditor and are generated automatically.
!-      Use '!' comments if they need to be retained when using the IDFEditor.
! 5ZoneAirCooled.idf
! Basic file description:  1 story building divided into 4 exterior and one interior conditioned zones and return plenum.
!
! Highlights:              Electric chiller with air cooled condenser; autosized preheating and precooling water coils in the
!                          outside air stream controlled to preheat and precool setpoints.
!
! Simulation Location/Run: CHICAGO_IL_USA TMY2-94846, 2 design days, 2 run periods,
!                          Run Control executes the run periods using the weather file
!
! Location:                Chicago, IL
!
! Design Days:             CHICAGO_IL_USA Annual Heating 99% Design Conditions DB, MaxDB= -17.3°C
!                          CHICAGO_IL_USA Annual Cooling 1% Design Conditions, MaxDB=  31.5°C MCWB=  23.0°C
!
! Run Period (Weather File): 1/1 through 12/31, CHICAGO_IL_USA TMY2-94846
!
! Run Control:             Zone and System sizing with weather file run control (no design days run)
!
! Building: Single floor rectangular building 100 ft x 50 ft. 5 zones - 4 exterior, 1 interior, zone height 8 feet.
!           Exterior zone depth is 12 feet. There is a 2 foot high return plenum: the overall building height is
!           10 feet. There are windows on all 4 facades; the south and north facades have glass doors.
!           The south facing glass is shaded by overhangs. The walls are woodshingle over plywood, R11 insulation,
!           and gypboard. The roof is a gravel built up roof with R-3 mineral board insulation and plywood sheathing.
!           The windows are of various single and double pane construction with 3mm and 6mm glass and either 6mm or
!           13mm argon or air gap.  The window to wall ratio is approxomately 0.29.
!           The south wall and door have overhangs.
!
!           The building is oriented 30 degrees east of north.
!
! Floor Area:        463.6 m2 (5000 ft2)
! Number of Stories: 1
!
! Zone Description Details:
!
!      (0,15.2,0)                      (30.5,15.2,0)
!           _____   ________                ____
!         |\     ***        ****************   /|
!         | \                                 / |
!         |  \                 (26.8,11.6,0) /  |
!         *   \_____________________________/   *
!         *    |(3.7,11.6,0)               |    *
!         *    |                           |    *
!         *    |                           |    *
!         *    |               (26.8,3.7,0)|    *
!         *    |___________________________|    *
!         *   / (3.7,3.7,0)                 \   *
!         |  /                               \  |
!         | /                                 \ |
!         |/___******************___***________\|
!          |       Overhang        |   |
!          |_______________________|   |   window/door = *
!                                  |___|
!
!      (0,0,0)                            (30.5,0,0)
!
! Internal gains description:     lighting is 1.5 watts/ft2, office equip is 1.0 watts/ft2. There is 1 occupant
!                                 per 100 ft2 of floor area. The infiltration is 0.25 air changes per hour.
!
! Interzone Surfaces:             6 interzone surfaces (see diagram)
! Internal Mass:                  None
! People:                         50
! Lights:                         7500 W
! Windows:                        4 ea.: 1) Double pane clear, 3mm glass, 13mm air gap
!                                        2) Double pane clear, 3mm glass, 13mm argon gap
!                                        3) Double pane clear, 6mm glass, 6mm air gap
!                                        4) Double pane lowE,  6mm lowE glass outside, 6mm air gap, 6mm clear glass
!
! Doors:                          2 ea.:    Single pane grey,  3mm glass
!
! Detached Shading:               None
! Daylight:                       None
! Natural Ventilation:            None
! Compact Schedules:              Yes
!
! HVAC:                           Standard VAV system with outside air, hot water reheat coils,
!                                 central chilled water cooling coil. Central Plant is single hot water
!                                 boiler, electric compression chiller with air cooled condenser.
!                                 All equipment is autosized. HW and ChW coils are used in the outside air
!                                 stream to precondition the outside air.
!
! Zonal Equipment:                AirTerminal:SingleDuct:VAV:Reheat
! Central Air Handling Equipment: Yes
! System Equipment Autosize:      Yes
! Purchased Cooling:              None
! Purchased Heating:              None
! Coils:                          Coil:Cooling:Water, Coil:Heating:Water
! Pumps:                          Pump:VariableSpeed
! Boilers:                        Boiler:HotWater
! Chillers:                       Chiller:Electric
!
! Results:
! Standard Reports:               None
! Timestep or Hourly Variables:   Hourly
! Time bins Report:               None
! HTML Report:                    None
! Environmental Emissions:        None
! Utility Tariffs:                None

  Version,8.0;

  Building,
    Building,                !- Name
    30.,                     !- North Axis {deg}
    City,                    !- Terrain
    0.04,                    !- Loads Convergence Tolerance Value
    0.4,                     !- Temperature Convergence Tolerance Value {deltaC}
    FullExterior,            !- Solar Distribution
    25,                      !- Maximum Number of Warmup Days
    6;                       !- Minimum Number of Warmup Days

  Timestep,60;

  ExternalInterface,
    PtolemyServer;           !- Name of External Interface

  SurfaceConvectionAlgorithm:Inside,Simple;

  SurfaceConvectionAlgorithm:Outside,SimpleCombined;

  HeatBalanceAlgorithm,ConductionTransferFunction;

  GlobalGeometryRules,
    UpperLeftCorner,         !- Starting Vertex Position
    CounterClockWise,        !- Vertex Entry Direction
    relative;                !- Coordinate System

  ScheduleTypeLimits,
    Any Number;              !- Name

  ScheduleTypeLimits,
    Fraction,                !- Name
    0.0,                     !- Lower Limit Value
    1.0,                     !- Upper Limit Value
    CONTINUOUS;              !- Numeric Type

  ScheduleTypeLimits,
    Temperature,             !- Name
    -60,                     !- Lower Limit Value
    200,                     !- Upper Limit Value
    CONTINUOUS,              !- Numeric Type
    Temperature;             !- Unit Type

  ScheduleTypeLimits,
    Control Type,            !- Name
    0,                       !- Lower Limit Value
    4,                       !- Upper Limit Value
    DISCRETE;                !- Numeric Type

  ScheduleTypeLimits,
    On/Off,                  !- Name
    0,                       !- Lower Limit Value
    1,                       !- Upper Limit Value
    DISCRETE;                !- Numeric Type

  ScheduleTypeLimits,
    FlowRate,                !- Name
    0.0,                     !- Lower Limit Value
    10,                      !- Upper Limit Value
    CONTINUOUS;              !- Numeric Type

  RunPeriod,
    ,                        !- Name
    6,                       !- Begin Month
    1,                       !- Begin Day of Month
    6,                       !- End Month
    1,                       !- End Day of Month
    Tuesday,                 !- Day of Week for Start Day
    Yes,                     !- Use Weather File Holidays and Special Days
    Yes,                     !- Use Weather File Daylight Saving Period
    No,                      !- Apply Weekend Holiday Rule
    Yes,                     !- Use Weather File Rain Indicators
    Yes;                     !- Use Weather File Snow Indicators

!  RunPeriod,
!    1,                       !- Begin Month
!    14,                      !- Begin Day Of Month
!    1,                       !- End Month
!    14,                      !- End Day Of Month
!    Tuesday,                 !- Day Of Week For Start Day
!    Yes,                     !- Use WeatherFile Holidays/Special Days
!    Yes,                     !- Use WeatherFile DaylightSavingPeriod
!    No,                      !- Apply Weekend Holiday Rule
!    Yes,                     !- Use WeatherFile Rain Indicators
!    Yes;                     !- Use WeatherFile Snow Indicators
!  RunPeriod,
!    7,                       !- Begin Month
!    7,                       !- Begin Day Of Month
!    7,                       !- End Month
!    7,                       !- End Day Of Month
!    Tuesday,                 !- Day Of Week For Start Day
!    Yes,                     !- Use WeatherFile Holidays/Special Days
!    Yes,                     !- Use WeatherFile DaylightSavingPeriod
!    No,                      !- Apply Weekend Holiday Rule
!    Yes,                     !- Use WeatherFile Rain Indicators
!    Yes;                     !- Use WeatherFile Snow Indicators

  Site:Location,
    Denver Centennial CO USA WMO=724666,  !- Name
    39.57,                   !- Latitude {deg}
    -104.85,                 !- Longitude {deg}
    -7.00,                   !- Time Zone {hr}
    1793.00;                 !- Elevation {m}

  SimulationControl,
    No,                     !- Do Zone Sizing Calculation
    Yes,                     !- Do System Sizing Calculation
    Yes,                     !- Do Plant Sizing Calculation
    No,                      !- Run Simulation for Sizing Periods
    Yes;                     !- Run Simulation for Weather File Run Periods

 !  WMO=724666 Time Zone=NAM        (GMT-07:00) Mountain Time (US & Canada)
 !  Data Source=ASHRAE 2009 Annual Design Conditions
 ! Using Design Conditions from "Climate Design Data 2009 ASHRAE Handbook"
 ! Denver Centennial CO USA Extreme Annual Wind Speeds, 1%=11.1m/s, 2.5%=9.5m/s, 5%=8.4m/s
 ! Denver Centennial CO USA Extreme Annual Temperatures, Max Drybulb=-22.9°C Min Drybulb=36.1°C
 ! Denver Centennial CO USA Annual Heating Design Conditions Wind Speed=3m/s Wind Dir=340
 ! Coldest Month=December
 ! Denver Centennial CO USA Annual Heating 99.6%, MaxDB=-18.8°C

  SizingPeriod:DesignDay,
    Denver Centennial Ann Htg 99.6% Condns DB,  !- Name
    12,                      !- Month
    21,                      !- Day of Month
    WinterDesignDay,         !- Day Type
    -18.8,                   !- Maximum Dry-Bulb Temperature {C}
    0.0,                     !- Daily Dry-Bulb Temperature Range {deltaC}
    ,                        !- Dry-Bulb Temperature Range Modifier Type
    ,                        !- Dry-Bulb Temperature Range Modifier Day Schedule Name
    Wetbulb,                 !- Humidity Condition Type
    -18.8,                   !- Wetbulb or DewPoint at Maximum Dry-Bulb {C}
    ,                        !- Humidity Condition Day Schedule Name
    ,                        !- Humidity Ratio at Maximum Dry-Bulb {kgWater/kgDryAir}
    ,                        !- Enthalpy at Maximum Dry-Bulb {J/kg}
    ,                        !- Daily Wet-Bulb Temperature Range {deltaC}
    81560.,                  !- Barometric Pressure {Pa}
    3,                       !- Wind Speed {m/s}
    340,                     !- Wind Direction {deg}
    No,                      !- Rain Indicator
    No,                      !- Snow Indicator
    No,                      !- Daylight Saving Time Indicator
    ASHRAEClearSky,          !- Solar Model Indicator
    ,                        !- Beam Solar Day Schedule Name
    ,                        !- Diffuse Solar Day Schedule Name
    ,                        !- ASHRAE Clear Sky Optical Depth for Beam Irradiance (taub) {dimensionless}
    ,                        !- ASHRAE Clear Sky Optical Depth for Diffuse Irradiance (taud) {dimensionless}
    0.00;                    !- Sky Clearness

 ! Denver Centennial Annual Cooling Design Conditions Wind Speed=4.9m/s Wind Dir=0
 ! Hottest Month=July
 ! Denver Centennial CO USA Annual Cooling (DB=>MWB) 1%, MaxDB=32°C MWB=15.5°C

  SizingPeriod:DesignDay,
    Denver Centennial Ann Clg 1% Condns DB=>MWB,  !- Name
    7,                       !- Month
    21,                      !- Day of Month
    SummerDesignDay,         !- Day Type
    32,                      !- Maximum Dry-Bulb Temperature {C}
    15.2,                    !- Daily Dry-Bulb Temperature Range {deltaC}
    ,                        !- Dry-Bulb Temperature Range Modifier Type
    ,                        !- Dry-Bulb Temperature Range Modifier Day Schedule Name
    Wetbulb,                 !- Humidity Condition Type
    15.5,                    !- Wetbulb or DewPoint at Maximum Dry-Bulb {C}
    ,                        !- Humidity Condition Day Schedule Name
    ,                        !- Humidity Ratio at Maximum Dry-Bulb {kgWater/kgDryAir}
    ,                        !- Enthalpy at Maximum Dry-Bulb {J/kg}
    ,                        !- Daily Wet-Bulb Temperature Range {deltaC}
    81560.,                  !- Barometric Pressure {Pa}
    4.9,                     !- Wind Speed {m/s}
    0,                       !- Wind Direction {deg}
    No,                      !- Rain Indicator
    No,                      !- Snow Indicator
    No,                      !- Daylight Saving Time Indicator
    ASHRAEClearSky,          !- Solar Model Indicator
    ,                        !- Beam Solar Day Schedule Name
    ,                        !- Diffuse Solar Day Schedule Name
    ,                        !- ASHRAE Clear Sky Optical Depth for Beam Irradiance (taub) {dimensionless}
    ,                        !- ASHRAE Clear Sky Optical Depth for Diffuse Irradiance (taud) {dimensionless}
    1.00;                    !- Sky Clearness

  Site:GroundTemperature:BuildingSurface,18.89,18.92,19.02,19.12,19.21,19.23,19.07,19.32,19.09,19.21,19.13,18.96;

  Material,
    WD10,                    !- Name
    MediumSmooth,            !- Roughness
    0.667,                   !- Thickness {m}
    0.115,                   !- Conductivity {W/m-K}
    513,                     !- Density {kg/m3}
    1381,                    !- Specific Heat {J/kg-K}
    0.9,                     !- Thermal Absorptance
    0.78,                    !- Solar Absorptance
    0.78;                    !- Visible Absorptance

  Material,
    RG01,                    !- Name
    Rough,                   !- Roughness
    1.2700000E-02,           !- Thickness {m}
    1.442000,                !- Conductivity {W/m-K}
    881.0000,                !- Density {kg/m3}
    1674.000,                !- Specific Heat {J/kg-K}
    0.9000000,               !- Thermal Absorptance
    0.6500000,               !- Solar Absorptance
    0.6500000;               !- Visible Absorptance

  Material,
    BR01,                    !- Name
    VeryRough,               !- Roughness
    9.4999997E-03,           !- Thickness {m}
    0.1620000,               !- Conductivity {W/m-K}
    1121.000,                !- Density {kg/m3}
    1464.000,                !- Specific Heat {J/kg-K}
    0.9000000,               !- Thermal Absorptance
    0.7000000,               !- Solar Absorptance
    0.7000000;               !- Visible Absorptance

  Material,
    IN46,                    !- Name
    VeryRough,               !- Roughness
    7.6200001E-02,           !- Thickness {m}
    2.3000000E-02,           !- Conductivity {W/m-K}
    24.00000,                !- Density {kg/m3}
    1590.000,                !- Specific Heat {J/kg-K}
    0.9000000,               !- Thermal Absorptance
    0.5000000,               !- Solar Absorptance
    0.5000000;               !- Visible Absorptance

  Material,
    WD01,                    !- Name
    MediumSmooth,            !- Roughness
    1.9099999E-02,           !- Thickness {m}
    0.1150000,               !- Conductivity {W/m-K}
    513.0000,                !- Density {kg/m3}
    1381.000,                !- Specific Heat {J/kg-K}
    0.9000000,               !- Thermal Absorptance
    0.7800000,               !- Solar Absorptance
    0.7800000;               !- Visible Absorptance

  Material,
    PW03,                    !- Name
    MediumSmooth,            !- Roughness
    1.2700000E-02,           !- Thickness {m}
    0.1150000,               !- Conductivity {W/m-K}
    545.0000,                !- Density {kg/m3}
    1213.000,                !- Specific Heat {J/kg-K}
    0.9000000,               !- Thermal Absorptance
    0.7800000,               !- Solar Absorptance
    0.7800000;               !- Visible Absorptance

  Material,
    IN02,                    !- Name
    Rough,                   !- Roughness
    9.0099998E-02,           !- Thickness {m}
    4.3000001E-02,           !- Conductivity {W/m-K}
    10.00000,                !- Density {kg/m3}
    837.0000,                !- Specific Heat {J/kg-K}
    0.9000000,               !- Thermal Absorptance
    0.7500000,               !- Solar Absorptance
    0.7500000;               !- Visible Absorptance

  Material,
    GP01,                    !- Name
    MediumSmooth,            !- Roughness
    1.2700000E-02,           !- Thickness {m}
    0.1600000,               !- Conductivity {W/m-K}
    801.0000,                !- Density {kg/m3}
    837.0000,                !- Specific Heat {J/kg-K}
    0.9000000,               !- Thermal Absorptance
    0.7500000,               !- Solar Absorptance
    0.7500000;               !- Visible Absorptance

  Material,
    GP02,                    !- Name
    MediumSmooth,            !- Roughness
    1.5900001E-02,           !- Thickness {m}
    0.1600000,               !- Conductivity {W/m-K}
    801.0000,                !- Density {kg/m3}
    837.0000,                !- Specific Heat {J/kg-K}
    0.9000000,               !- Thermal Absorptance
    0.7500000,               !- Solar Absorptance
    0.7500000;               !- Visible Absorptance

  Material,
    CC03,                    !- Name
    MediumRough,             !- Roughness
    0.1016000,               !- Thickness {m}
    1.310000,                !- Conductivity {W/m-K}
    2243.000,                !- Density {kg/m3}
    837.0000,                !- Specific Heat {J/kg-K}
    0.9000000,               !- Thermal Absorptance
    0.6500000,               !- Solar Absorptance
    0.6500000;               !- Visible Absorptance

  Material:NoMass,
    CP01,                    !- Name
    Rough,                   !- Roughness
    0.3670000,               !- Thermal Resistance {m2-K/W}
    0.9000000,               !- Thermal Absorptance
    0.7500000,               !- Solar Absorptance
    0.7500000;               !- Visible Absorptance

  Material:NoMass,
    MAT-SB-U,                !- Name
    Rough,                   !- Roughness
    0.117406666,             !- Thermal Resistance {m2-K/W}
    0.65,                    !- Thermal Absorptance
    0.65,                    !- Solar Absorptance
    0.65;                    !- Visible Absorptance

  Material:NoMass,
    MAT-CLNG-1,              !- Name
    Rough,                   !- Roughness
    0.652259290,             !- Thermal Resistance {m2-K/W}
    0.65,                    !- Thermal Absorptance
    0.65,                    !- Solar Absorptance
    0.65;                    !- Visible Absorptance

  Material:NoMass,
    MAT-FLOOR-1,             !- Name
    Rough,                   !- Roughness
    3.522199631,             !- Thermal Resistance {m2-K/W}
    0.65,                    !- Thermal Absorptance
    0.65,                    !- Solar Absorptance
    0.65;                    !- Visible Absorptance

  Material:AirGap,
    AL21,                    !- Name
    0.1570000;               !- Thermal Resistance {m2-K/W}

  Material:AirGap,
    AL23,                    !- Name
    0.1530000;               !- Thermal Resistance {m2-K/W}

  Construction,
    ROOF-1,                  !- Name
    RG01,                    !- Outside Layer
    BR01,                    !- Layer 2
    IN46,                    !- Layer 3
    WD01;                    !- Layer 4

  Construction,
    WALL-1,                  !- Name
    WD01,                    !- Outside Layer
    PW03,                    !- Layer 2
    IN02,                    !- Layer 3
    GP01;                    !- Layer 4

  Construction,
    CLNG-1,                  !- Name
    MAT-CLNG-1;              !- Outside Layer

  Construction,
    SB-U,                    !- Name
    MAT-SB-U;                !- Outside Layer

  Construction,
    FLOOR-1,                 !- Name
    MAT-FLOOR-1;             !- Outside Layer

  Construction,
    FLOOR-SLAB-1,            !- Name
    CC03;                    !- Outside Layer

  Construction,
    INT-WALL-1,              !- Name
    GP02,                    !- Outside Layer
    AL21,                    !- Layer 2
    GP02;                    !- Layer 3

  WindowMaterial:Gas,
    AIR 6MM,                 !- Name
    Air,                     !- Gas Type
    0.0063;                  !- Thickness {m}

  WindowMaterial:Gas,
    AIR 13MM,                !- Name
    Air,                     !- Gas Type
    0.0127;                  !- Thickness {m}

  WindowMaterial:Gas,
    ARGON 13MM,              !- Name
    Argon,                   !- Gas Type
    0.0127;                  !- Thickness {m}

  WindowMaterial:Glazing,
    CLEAR 3MM,               !- Name
    SpectralAverage,         !- Optical Data Type
    ,                        !- Window Glass Spectral Data Set Name
    0.003,                   !- Thickness {m}
    0.837,                   !- Solar Transmittance at Normal Incidence
    0.075,                   !- Front Side Solar Reflectance at Normal Incidence
    0.075,                   !- Back Side Solar Reflectance at Normal Incidence
    0.898,                   !- Visible Transmittance at Normal Incidence
    0.081,                   !- Front Side Visible Reflectance at Normal Incidence
    0.081,                   !- Back Side Visible Reflectance at Normal Incidence
    0.0,                     !- Infrared Transmittance at Normal Incidence
    0.84,                    !- Front Side Infrared Hemispherical Emissivity
    0.84,                    !- Back Side Infrared Hemispherical Emissivity
    0.9;                     !- Conductivity {W/m-K}

  WindowMaterial:Glazing,
    GREY 3MM,                !- Name
    SpectralAverage,         !- Optical Data Type
    ,                        !- Window Glass Spectral Data Set Name
    0.003,                   !- Thickness {m}
    0.626,                   !- Solar Transmittance at Normal Incidence
    0.061,                   !- Front Side Solar Reflectance at Normal Incidence
    0.061,                   !- Back Side Solar Reflectance at Normal Incidence
    0.611,                   !- Visible Transmittance at Normal Incidence
    0.061,                   !- Front Side Visible Reflectance at Normal Incidence
    0.061,                   !- Back Side Visible Reflectance at Normal Incidence
    0.0,                     !- Infrared Transmittance at Normal Incidence
    0.84,                    !- Front Side Infrared Hemispherical Emissivity
    0.84,                    !- Back Side Infrared Hemispherical Emissivity
    0.9;                     !- Conductivity {W/m-K}

  WindowMaterial:Glazing,
    CLEAR 6MM,               !- Name
    SpectralAverage,         !- Optical Data Type
    ,                        !- Window Glass Spectral Data Set Name
    0.006,                   !- Thickness {m}
    0.775,                   !- Solar Transmittance at Normal Incidence
    0.071,                   !- Front Side Solar Reflectance at Normal Incidence
    0.071,                   !- Back Side Solar Reflectance at Normal Incidence
    0.881,                   !- Visible Transmittance at Normal Incidence
    0.080,                   !- Front Side Visible Reflectance at Normal Incidence
    0.080,                   !- Back Side Visible Reflectance at Normal Incidence
    0.0,                     !- Infrared Transmittance at Normal Incidence
    0.84,                    !- Front Side Infrared Hemispherical Emissivity
    0.84,                    !- Back Side Infrared Hemispherical Emissivity
    0.9;                     !- Conductivity {W/m-K}

  WindowMaterial:Glazing,
    LoE CLEAR 6MM,           !- Name
    SpectralAverage,         !- Optical Data Type
    ,                        !- Window Glass Spectral Data Set Name
    0.006,                   !- Thickness {m}
    0.600,                   !- Solar Transmittance at Normal Incidence
    0.170,                   !- Front Side Solar Reflectance at Normal Incidence
    0.220,                   !- Back Side Solar Reflectance at Normal Incidence
    0.840,                   !- Visible Transmittance at Normal Incidence
    0.055,                   !- Front Side Visible Reflectance at Normal Incidence
    0.078,                   !- Back Side Visible Reflectance at Normal Incidence
    0.0,                     !- Infrared Transmittance at Normal Incidence
    0.84,                    !- Front Side Infrared Hemispherical Emissivity
    0.10,                    !- Back Side Infrared Hemispherical Emissivity
    0.9;                     !- Conductivity {W/m-K}

  Construction,
    Dbl Clr 3mm/13mm Air,    !- Name
    CLEAR 3MM,               !- Outside Layer
    AIR 13MM,                !- Layer 2
    CLEAR 3MM;               !- Layer 3

  Construction,
    Dbl Clr 3mm/13mm Arg,    !- Name
    CLEAR 3MM,               !- Outside Layer
    ARGON 13MM,              !- Layer 2
    CLEAR 3MM;               !- Layer 3

  Construction,
    Sgl Grey 3mm,            !- Name
    GREY 3MM;                !- Outside Layer

  Construction,
    Dbl Clr 6mm/6mm Air,     !- Name
    CLEAR 6MM,               !- Outside Layer
    AIR 6MM,                 !- Layer 2
    CLEAR 6MM;               !- Layer 3

  Construction,
    Dbl LoE (e2=.1) Clr 6mm/6mm Air,  !- Name
    LoE CLEAR 6MM,           !- Outside Layer
    AIR 6MM,                 !- Layer 2
    CLEAR 6MM;               !- Layer 3

  Schedule:Compact,
    OCCUPY-1,                !- Name
    Fraction,                !- Schedule Type Limits Name
    Through: 12/31,          !- Field 1
    For: WeekDays SummerDesignDay CustomDay1 CustomDay2, !- Field 2
    Until: 8:00,0.0,         !- Field 3
    Until: 11:00,1.00,       !- Field 5
    Until: 12:00,0.80,       !- Field 7
    Until: 13:00,0.40,       !- Field 9
    Until: 14:00,0.80,       !- Field 11
    Until: 18:00,1.00,       !- Field 13
    Until: 19:00,0.50,       !- Field 15
    Until: 24:00,0.0,        !- Field 17
    For: Weekends WinterDesignDay Holiday, !- Field 19
    Until: 24:00,0.0;        !- Field 20

  Schedule:Compact,
    LIGHTS-1,                !- Name
    Fraction,                !- Schedule Type Limits Name
    Through: 12/31,          !- Field 1
    For: WeekDays SummerDesignDay CustomDay1 CustomDay2, !- Field 2
    Until: 8:00,0.05,        !- Field 3
    Until: 9:00,0.9,         !- Field 5
    Until: 10:00,0.95,       !- Field 7
    Until: 11:00,1.00,       !- Field 9
    Until: 12:00,0.95,       !- Field 11
    Until: 13:00,0.8,        !- Field 13
    Until: 14:00,0.9,        !- Field 15
    Until: 18:00,1.00,       !- Field 17
    Until: 19:00,0.60,       !- Field 19
    Until: 21:00,0.20,       !- Field 21
    Until: 24:00,0.05,       !- Field 23
    For: Weekends WinterDesignDay Holiday, !- Field 25
    Until: 24:00,0.05;       !- Field 26

  Schedule:Compact,
    EQUIP-1,                 !- Name
    Fraction,                !- Schedule Type Limits Name
    Through: 12/31,          !- Field 1
    For: WeekDays SummerDesignDay CustomDay1 CustomDay2, !- Field 2
    Until: 8:00,0.02,        !- Field 3
    Until: 9:00,0.4,         !- Field 5
    Until: 14:00,0.9,        !- Field 7
    Until: 15:00,0.8,        !- Field 9
    Until: 16:00,0.7,        !- Field 11
    Until: 18:00,0.5,        !- Field 13
    Until: 20:00,0.3,        !- Field 15
    Until: 24:00,0.02,       !- Field 17
    For: Weekends WinterDesignDay Holiday, !- Field 19
    Until: 24:00,0.2;        !- Field 20

  Schedule:Compact,
    INFIL-SCH,               !- Name
    Fraction,                !- Schedule Type Limits Name
    Through: 3/31,           !- Field 1
    For: AllDays,            !- Field 2
    Until: 24:00,1.0,        !- Field 3
    Through: 10/31,          !- Field 5
    For: AllDays,            !- Field 6
    Until: 24:00,0.0,        !- Field 7
    Through: 12/31,          !- Field 9
    For: AllDays,            !- Field 10
    Until: 24:00,1.0;        !- Field 11

  Schedule:Compact,
    ActSchd,                 !- Name
    Any Number,              !- Schedule Type Limits Name
    Through: 12/31,          !- Field 1
    For: AllDays,            !- Field 2
    Until: 24:00,117.239997864; !- Field 3

                             !- Field 4

  Schedule:Compact,
    ShadeTransSch,           !- Name
    Fraction,                !- Schedule Type Limits Name
    Through: 12/31,          !- Field 1
    For: AllDays,            !- Field 2
    Until: 24:00,0.0;        !- Field 3


  Sizing:Parameters,
    1.0,                     !- Heating Sizing Factor
    1.0,                     !- Cooling Sizing Factor
    ;                        !- Timesteps in Averaging Window

!  Sizing:Plant,
!    Hot Water Loop,          !- Plant or Condenser Loop Name
!    heating,                 !- Loop Type
!    82.,                     !- Design Loop Exit Temperature {C}
!    11;                      !- Loop Design Temperature Difference {deltaC}

!  Sizing:Plant,
!    Condenser Water Loop,      !- Plant or Condenser Loop Name
!    cooling,                 !- Loop Type
!    7.00,                    !- Design Loop Exit Temperature {C}